Version 4
SHEET 1 2100 680
WIRE 1152 -672 816 -672
WIRE 1552 -672 1440 -672
WIRE 1840 -672 1696 -672
WIRE 1984 -672 1840 -672
WIRE 1152 -656 1152 -672
WIRE 1440 -656 1440 -672
WIRE 1984 -656 1984 -672
WIRE 1840 -640 1840 -672
WIRE -144 -608 -144 -640
WIRE -336 -576 -448 -576
WIRE 1152 -544 1152 -576
WIRE 1440 -544 1440 -576
WIRE 1840 -544 1840 -576
WIRE 1840 -544 1440 -544
WIRE 1984 -544 1984 -576
WIRE 1984 -544 1840 -544
WIRE -448 -528 -448 -576
WIRE -336 -512 -336 -576
WIRE -272 -512 -336 -512
WIRE 32 -512 -16 -512
WIRE 880 -496 880 -512
WIRE -416 -448 -448 -448
WIRE -384 -448 -416 -448
WIRE -288 -448 -320 -448
WIRE -272 -448 -288 -448
WIRE 32 -448 -16 -448
WIRE -416 -432 -416 -448
WIRE 1552 -432 1440 -432
WIRE 1840 -432 1696 -432
WIRE 1984 -432 1840 -432
WIRE 1152 -416 1152 -464
WIRE 1440 -400 1440 -432
WIRE 1984 -400 1984 -432
WIRE -288 -384 -288 -448
WIRE -272 -384 -288 -384
WIRE 32 -384 -16 -384
WIRE 1840 -384 1840 -432
WIRE -352 -352 -368 -352
WIRE -352 -336 -352 -352
WIRE -352 -336 -384 -336
WIRE -304 -336 -352 -336
WIRE -304 -320 -304 -336
WIRE -272 -320 -304 -320
WIRE 32 -320 -16 -320
WIRE 1152 -304 1152 -336
WIRE 1440 -288 1440 -320
WIRE 1840 -288 1840 -320
WIRE 1840 -288 1440 -288
WIRE 1984 -288 1984 -320
WIRE 1984 -288 1840 -288
WIRE -304 -256 -384 -256
WIRE -272 -256 -304 -256
WIRE 32 -256 -16 -256
WIRE 176 -256 112 -256
WIRE -304 -208 -304 -256
WIRE -304 -208 -496 -208
WIRE -272 -192 -288 -192
WIRE 16 -192 -16 -192
WIRE -928 -176 -928 -224
WIRE -816 -176 -816 -224
WIRE -496 -176 -496 -208
WIRE -496 -176 -560 -176
WIRE -288 -176 -288 -192
WIRE -288 -176 -384 -176
WIRE 1152 -176 1152 -224
WIRE 176 -160 176 -176
WIRE -272 -128 -304 -128
WIRE 992 -128 816 -128
WIRE -496 -80 -496 -96
WIRE -304 -64 -304 -128
WIRE -144 -64 -144 -96
WIRE -144 -64 -304 -64
WIRE -928 -32 -928 -96
WIRE -816 -32 -816 -96
WIRE -144 -32 -144 -64
WIRE 1152 0 1152 -80
WIRE 1152 0 880 0
FLAG -144 -32 0
FLAG -816 -32 0
FLAG -816 -224 Vcc
FLAG -416 -432 0
FLAG 176 -160 0
FLAG 176 -256 Vnoinv
FLAG -384 -96 Vnoinv
FLAG 32 -448 pwm
FLAG 32 -384 unused
FLAG 880 0 0
FLAG 1984 -432 Vo_5
FLAG 1984 -672 Vo_16
FLAG -928 -32 0
FLAG -928 -224 Vline
FLAG 880 -496 0
FLAG 816 -672 Vline
FLAG 816 -128 pwm
FLAG -496 -80 0
FLAG 1984 -544 0
FLAG -432 -352 0
FLAG -640 -176 Vo_16
FLAG -144 -640 Vcc
FLAG 32 -512 Vcc
FLAG 1984 -288 0
FLAG 16 -128 0
SYMBOL ValVol\\SG3525A -144 -352 R0
SYMATTR InstName U1
SYMBOL Misc\\signal -816 -192 R0
SYMATTR InstName V1
SYMATTR Value 16V
SYMBOL cap -320 -464 R90
WINDOW 0 0 32 VBottom 2
WINDOW 3 32 32 VTop 2
SYMATTR InstName C1
SYMATTR Value 4.7n
SYMBOL res -432 -544 M0
SYMATTR InstName R1
SYMATTR Value 2000
SYMBOL res 128 -272 R90
WINDOW 0 0 56 VBottom 2
WINDOW 3 32 56 VTop 2
SYMATTR InstName R2
SYMATTR Value 0.5K
SYMBOL res 192 -160 R180
WINDOW 0 36 76 Left 2
WINDOW 3 36 40 Left 2
SYMATTR InstName R3
SYMATTR Value 1.5k
SYMBOL ZZZ\\MOS\\IRF\\NMOSFET\\irf840 1120 -128 R0
SYMATTR InstName U2
SYMBOL ind2 1136 -560 R0
SYMATTR InstName L1
SYMATTR Value 4.096m
SYMATTR Type ind
SYMBOL ind2 1456 -560 R180
WINDOW 0 36 80 Left 2
WINDOW 3 36 40 Left 2
SYMATTR InstName L2
SYMATTR Value 36µ
SYMATTR Type ind
SYMBOL ind2 1456 -304 R180
WINDOW 0 36 80 Left 2
WINDOW 3 36 40 Left 2
SYMATTR InstName L3
SYMATTR Value 4µ
SYMATTR Type ind
SYMBOL cap 1824 -640 R0
SYMATTR InstName C3
SYMATTR Value 6µ
SYMATTR SpiceLine Rser=0.01
SYMBOL res 1968 -672 R0
SYMATTR InstName R5
SYMATTR Value 10
SYMBOL res 1968 -416 R0
SYMATTR InstName R6
SYMATTR Value 10
SYMBOL cap 1824 -384 R0
SYMATTR InstName C4
SYMATTR Value 36µ
SYMATTR SpiceLine Rser=0.01
SYMBOL res 1088 -144 R90
WINDOW 0 0 56 VBottom 2
WINDOW 3 32 56 VTop 2
SYMATTR InstName Rg
SYMATTR Value 47
SYMBOL voltage -928 -192 R0
WINDOW 123 0 0 Left 0
WINDOW 39 0 0 Left 0
SYMATTR InstName V2
SYMATTR Value 300
SYMBOL res 1712 -688 R90
WINDOW 0 0 56 VBottom 2
WINDOW 3 32 56 VTop 2
SYMATTR InstName R9
SYMATTR Value 0.1
SYMBOL res 1712 -448 R90
WINDOW 0 0 56 VBottom 2
WINDOW 3 32 56 VTop 2
SYMATTR InstName R10
SYMATTR Value 0.1
SYMBOL cap 864 -576 R0
SYMATTR InstName Cdec
SYMATTR Value 10µ
SYMBOL ind 1136 -432 R0
SYMATTR InstName Ld
SYMATTR Value 200µ
SYMBOL res 1136 -672 R0
SYMATTR InstName R7
SYMATTR Value 0.1
SYMBOL res 1136 -320 R0
SYMATTR InstName R11
SYMATTR Value 0.1
SYMBOL res -544 -192 R90
WINDOW 0 0 56 VBottom 2
WINDOW 3 32 56 VTop 2
SYMATTR InstName R12
SYMATTR Value 3K
SYMBOL res -480 -80 R180
WINDOW 0 36 76 Left 2
WINDOW 3 36 40 Left 2
SYMATTR InstName R13
SYMATTR Value 1k
SYMBOL res -368 -352 M0
SYMATTR InstName R14
SYMATTR Value 25k
SYMBOL res -400 -192 R0
SYMATTR InstName R15
SYMATTR Value 0.75k
SYMBOL cap -368 -368 R90
WINDOW 0 0 32 VBottom 2
WINDOW 3 32 32 VTop 2
SYMATTR InstName C6
SYMATTR Value 0.01n
SYMBOL diode 1552 -656 R270
WINDOW 0 32 32 VTop 2
WINDOW 3 0 32 VBottom 2
SYMATTR InstName D1
SYMATTR Value MUR160
SYMBOL diode 1552 -416 R270
WINDOW 0 32 32 VTop 2
WINDOW 3 0 32 VBottom 2
SYMATTR InstName D3
SYMATTR Value MUR160
SYMBOL cap 0 -192 R0
SYMATTR InstName C2
SYMATTR Value 1p
TEXT -712 48 Left 2 !.tran 0 50m 30m 1m
TEXT -704 -728 Left 2 ;PWM
TEXT 168 -288 Left 2 ;3/4 * 5.1 = 3.825V
TEXT 1256 -792 Left 2 !K1 L1 L2 L3 1
TEXT 1376 -264 Left 2 ;Secundario - 5V
TEXT 1376 -736 Left 2 ;Secundario - 16V
TEXT 1400 80 Left 2 ;Snubber
TEXT 656 -736 Left 2 ;Primario
LINE Normal 1296 -304 1296 -640
LINE Normal 1296 -304 1296 -304 2
LINE Normal 1328 -320 1328 -320 2
LINE Normal 1328 -304 1328 -640
LINE Normal 1328 -304 1328 -304 2
LINE Normal 1360 -320 1360 -320 2
RECTANGLE Normal 416 176 -720 -752 2
RECTANGLE Normal 2080 -512 1360 -752 2
RECTANGLE Normal 2096 -240 1360 -480 2
RECTANGLE Normal 1888 128 1360 -208 2
RECTANGLE Normal 1264 128 640 -752 2
