Version 4
SHEET 1 880 680
WIRE 320 176 288 176
WIRE 432 176 400 176
WIRE 544 176 432 176
WIRE 432 192 432 176
WIRE 544 192 544 176
WIRE 304 272 288 272
WIRE 432 272 432 256
WIRE 432 272 304 272
WIRE 544 272 432 272
WIRE 304 288 304 272
FLAG 544 176 Vo
FLAG 304 288 0
SYMBOL ZZZ\\Source\\rectified_voltage 208 176 R0
SYMATTR InstName U1
SYMBOL cap 416 192 R0
SYMATTR InstName C1
SYMATTR Value 70µ
SYMBOL res 528 176 R0
SYMATTR InstName R1
SYMATTR Value 480
SYMBOL res 416 160 R90
WINDOW 0 0 56 VBottom 2
WINDOW 3 32 56 VTop 2
SYMATTR InstName R2
SYMATTR Value 0.1
TEXT 14 282 Left 2 !.tran 10
